$DATA1 SOURCE='HSPICE' VERSION='P-2019.06-SP1-1 win64' PARAM_COUNT=0
.TITLE ''
 maxvd            snm              temper           alter#          
    0.4715           0.3334          27.0000        1               
